[General]
description = "Base configuration, do not run this config!"
############### Simualtion configuration ##################
#sim-time-limit = 60s	 # 1 hour  
sim-time-limit = ${simtime=60s,300s,600s,3600s,7200s}
warmup-period = 1s 
seed-set = ${repetition} 

############### Statistics ##################
output-scalar-file-append = false
**.routingRecorder.enabled = false
record-eventlog = false

**.servingCell*.vector-recording = true
**.servedUE*.vector-recording = true
**.cellIdNodeIdCouple*.vector-recording = true
**.simNodeIds*.vector-recording = true
**.coord*.vector-recording = true

**.scalar-recording = false
**.vector-recording = false	

# include itervars in the output file names 
output-scalar-file = ../../${resultdir}/${configname}/${iterationvars}-repit-${repetition}.sca 
output-vector-file = ../../${resultdir}/${configname}/${iterationvars}-repit-${repetition}.vec

# --------------------------------------------------------# 

# --------------------------------------------------------# 
# Config "Mutliple-Cell" 
# 
# 
# 
[Config Base-Configuration]
################ NED config setting #############
#network = networks.MultiCell
#network = Mobility # This is because i added the ned files needed through the project properties
network = Base_Config_1RAN
description = "Base configuration, do not run this config!"
# --------------------------------------------------------#


############### Internet Cloud config ##############
**.internetCloud.ipv4Delayer.config = xmldoc("config/internetcloud_config.xml")

############### General PHY parameters ##############
**.downlink_interference = true
**.uplink_interference = true
**.ueTxPower = 26
**.eNodeBTxPower = 46
**.targetBler = 0.01
**.blerShift = 5  
**.fbPeriod = 40   # reports CQI every 40ms

############# Floorplan parameters ################
**.mobility.constraintAreaMaxX = 2000m
**.mobility.constraintAreaMaxY = 2000m
**.mobility.constraintAreaMinX = 0m
**.mobility.constraintAreaMinY = 250m
**.mobility.constraintAreaMinZ = 0m
**.mobility.constraintAreaMaxZ = 0m
**.mobility.initFromDisplayString = false

############### CA configuration ################# 
*.carrierAggregation.numComponentCarriers = 1
*.carrierAggregation.componentCarrier[0].numerologyIndex = ${u=0}
*.carrierAggregation.componentCarrier[0].carrierFrequency = 2GHz
*.carrierAggregation.componentCarrier[0].numBands = ${numRbs=2}

*.gnb*.cellularNic.numCarriers = 1
*.gnb*.cellularNic.channelModel[0].componentCarrierIndex = 0
*.ue[*].cellularNic.numCarriers = 1
*.ue[*].cellularNic.nrChannelModel[0].componentCarrierIndex = 0

############### BS position #################
*.gnb1.mobility.initialX = 1000m
*.gnb1.mobility.initialY = 1000m

# --------------------------------------------------------# 
# Config "Mobility-dataset" 
# 	
#   
# 
# 
[Config TC-Base-Mob100-001]
extends = Base-Configuration
description = "1 gNodeBs 100 UEs. Mutiple Simulation times 60sec /1min, 300sec /5min, 600sec /10min, 3600sec /1hr 7200sec /2hr"

############## UE configuration ##################
*.numUe = ${numUEs=100}

**.ueIdOffset = ${repetition}*${numUEs}

# UEs associates to the best BS at the beginning of the simulation
*.ue[*].macCellId = 0
*.ue[*].masterId = 0
*.ue[*].nrMacCellId = 1
*.ue[*].nrMasterId = 1
#*.ue[*].nrMacCellId = intuniform(1,3) # randomly allocate the UEs to the NR cells
#*.ue[*].nrMasterId = intuniform(1,3)  # randomly allocate the UEs to the NR cells
**.dynamicCellAssociation = true
**.enableHandover = true

############ UEs position #################
*.ue[*].mobility.typename = "RandomWaypointMobility"
#*.ue[*].mobility.initialX = uniform(0m,2000m)
#*.ue[*].mobility.initialY = uniform(2000m,0m)
*.ue[*].mobility.speed = uniform(0mps,12mps) #speed random from 0 to 40 km/h

